# Discretization file for MODFLOW, generated by Flopy.
        36         1        36        30         4         2
  0  0  0  0  0  0  0  0  0  0  0  0  0  0  0  0  0  0  0  0  0  0  0  0  0  0  0  0  0  0  0  0  0  0  0  0
INTERNAL               1  (36E15.6) -1 #delr                          
   1.000000E-01   1.302000E-01   1.695204E-01   2.207156E-01   2.873717E-01   3.741579E-01   4.871536E-01   6.342739E-01   8.258247E-01   1.075224E+00   1.399941E+00   1.822724E+00   2.373186E+00   3.089888E+00   4.023035E+00   5.237991E+00   6.819865E+00   8.879463E+00   1.156106E+01   1.505250E+01   1.959836E+01   2.551706E+01   3.322321E+01   4.325663E+01   5.632013E+01   7.332880E+01   9.547411E+01   1.243073E+02   1.618481E+02   2.107262E+02   2.743655E+02   3.572239E+02   4.651055E+02   6.055674E+02   7.884487E+02   1.026560E+03
CONSTANT    1.000000E+00                           #delc                          
CONSTANT   -3.500000E-01                           #model_top                     
CONSTANT   -7.350000E+00                           #botm layer 1                  
CONSTANT   -7.850000E+00                           #botm layer 2                  
CONSTANT   -8.350000E+00                           #botm layer 3                  
CONSTANT   -8.850000E+00                           #botm layer 4                  
CONSTANT   -9.350000E+00                           #botm layer 5                  
CONSTANT   -9.850000E+00                           #botm layer 6                  
CONSTANT   -1.035000E+01                           #botm layer 7                  
CONSTANT   -1.085000E+01                           #botm layer 8                  
CONSTANT   -1.135000E+01                           #botm layer 9                  
CONSTANT   -1.185000E+01                           #botm layer 10                 
CONSTANT   -1.235000E+01                           #botm layer 11                 
CONSTANT   -1.285000E+01                           #botm layer 12                 
CONSTANT   -1.335000E+01                           #botm layer 13                 
CONSTANT   -1.385000E+01                           #botm layer 14                 
CONSTANT   -1.435000E+01                           #botm layer 15                 
CONSTANT   -1.485000E+01                           #botm layer 16                 
CONSTANT   -1.535000E+01                           #botm layer 17                 
CONSTANT   -1.585000E+01                           #botm layer 18                 
CONSTANT   -1.635000E+01                           #botm layer 19                 
CONSTANT   -1.685000E+01                           #botm layer 20                 
CONSTANT   -1.735000E+01                           #botm layer 21                 
CONSTANT   -1.785000E+01                           #botm layer 22                 
CONSTANT   -1.835000E+01                           #botm layer 23                 
CONSTANT   -1.885000E+01                           #botm layer 24                 
CONSTANT   -1.935000E+01                           #botm layer 25                 
CONSTANT   -1.985000E+01                           #botm layer 26                 
CONSTANT   -2.035000E+01                           #botm layer 27                 
CONSTANT   -2.085000E+01                           #botm layer 28                 
CONSTANT   -2.135000E+01                           #botm layer 29                 
CONSTANT   -2.185000E+01                           #botm layer 30                 
CONSTANT   -2.235000E+01                           #botm layer 31                 
CONSTANT   -2.285000E+01                           #botm layer 32                 
CONSTANT   -2.335000E+01                           #botm layer 33                 
CONSTANT   -2.385000E+01                           #botm layer 34                 
CONSTANT   -2.435000E+01                           #botm layer 35                 
CONSTANT   -2.485000E+01                           #botm layer 36                 
      1.000000             6  1.000000  TR 
      1.000000             6  1.000000  TR 
      1.000000             6  1.000000  TR 
      1.000000             6  1.000000  TR 
      1.000000             6  1.000000  TR 
      1.000000             6  1.000000  TR 
      1.000000             6  1.000000  TR 
      1.000000             6  1.000000  TR 
      1.000000             6  1.000000  TR 
      1.000000             6  1.000000  TR 
      1.000000             6  1.000000  TR 
      1.000000             6  1.000000  TR 
      1.000000             6  1.000000  TR 
      1.000000             6  1.000000  TR 
      1.000000             6  1.000000  TR 
      1.000000             6  1.000000  TR 
      1.000000             6  1.000000  TR 
      1.000000             6  1.000000  TR 
      1.000000             6  1.000000  TR 
      1.000000             6  1.000000  TR 
      1.000000             6  1.000000  TR 
      1.000000             6  1.000000  TR 
      1.000000             6  1.000000  TR 
      1.000000             6  1.000000  TR 
      1.000000             6  1.000000  TR 
      1.000000             6  1.000000  TR 
      1.000000             6  1.000000  TR 
      1.000000             6  1.000000  TR 
      1.000000             6  1.000000  TR 
      1.000000             6  1.000000  TR 
