# PCG for MODFLOW, generated by Flopy.
500 30 1 0
0.0001 0.001 1.0 0 0 3 1.0 
