# Well file for MODFLOW, generated by Flopy.
         5         0
         5         0 # stress period 0
         2         1         1       -10
         3         1         1       -10
         4         1         1       -10
         5         1         1       -10
         6         1         1       -10
         5         0 # stress period 1
         2         1         1       -10
         3         1         1       -10
         4         1         1       -10
         5         1         1       -10
         6         1         1       -10
         5         0 # stress period 2
         2         1         1       -10
         3         1         1       -10
         4         1         1       -10
         5         1         1       -10
         6         1         1       -10
         5         0 # stress period 3
         2         1         1       -10
         3         1         1       -10
         4         1         1       -10
         5         1         1       -10
         6         1         1       -10
         5         0 # stress period 4
         2         1         1       -10
         3         1         1       -10
         4         1         1       -10
         5         1         1       -10
         6         1         1       -10
         5         0 # stress period 5
         2         1         1       -10
         3         1         1       -10
         4         1         1       -10
         5         1         1       -10
         6         1         1       -10
         5         0 # stress period 6
         2         1         1       -10
         3         1         1       -10
         4         1         1       -10
         5         1         1       -10
         6         1         1       -10
         5         0 # stress period 7
         2         1         1       -10
         3         1         1       -10
         4         1         1       -10
         5         1         1       -10
         6         1         1       -10
         5         0 # stress period 8
         2         1         1       -10
         3         1         1       -10
         4         1         1       -10
         5         1         1       -10
         6         1         1       -10
         5         0 # stress period 9
         2         1         1       -10
         3         1         1       -10
         4         1         1       -10
         5         1         1       -10
         6         1         1       -10
         5         0 # stress period 10
         2         1         1       -10
         3         1         1       -10
         4         1         1       -10
         5         1         1       -10
         6         1         1       -10
         5         0 # stress period 11
         2         1         1       -10
         3         1         1       -10
         4         1         1       -10
         5         1         1       -10
         6         1         1       -10
         5         0 # stress period 12
         2         1         1       -10
         3         1         1       -10
         4         1         1       -10
         5         1         1       -10
         6         1         1       -10
         5         0 # stress period 13
         2         1         1       -10
         3         1         1       -10
         4         1         1       -10
         5         1         1       -10
         6         1         1       -10
         5         0 # stress period 14
         2         1         1       -10
         3         1         1       -10
         4         1         1       -10
         5         1         1       -10
         6         1         1       -10
         5         0 # stress period 15
         2         1         1       -10
         3         1         1       -10
         4         1         1       -10
         5         1         1       -10
         6         1         1       -10
         5         0 # stress period 16
         2         1         1       -10
         3         1         1       -10
         4         1         1       -10
         5         1         1       -10
         6         1         1       -10
         5         0 # stress period 17
         2         1         1       -10
         3         1         1       -10
         4         1         1       -10
         5         1         1       -10
         6         1         1       -10
         5         0 # stress period 18
         2         1         1       -10
         3         1         1       -10
         4         1         1       -10
         5         1         1       -10
         6         1         1       -10
         5         0 # stress period 19
         2         1         1       -10
         3         1         1       -10
         4         1         1       -10
         5         1         1       -10
         6         1         1       -10
         5         0 # stress period 20
         2         1         1       -10
         3         1         1       -10
         4         1         1       -10
         5         1         1       -10
         6         1         1       -10
         5         0 # stress period 21
         2         1         1       -10
         3         1         1       -10
         4         1         1       -10
         5         1         1       -10
         6         1         1       -10
         5         0 # stress period 22
         2         1         1       -10
         3         1         1       -10
         4         1         1       -10
         5         1         1       -10
         6         1         1       -10
         5         0 # stress period 23
         2         1         1       -10
         3         1         1       -10
         4         1         1       -10
         5         1         1       -10
         6         1         1       -10
         5         0 # stress period 24
         2         1         1       -10
         3         1         1       -10
         4         1         1       -10
         5         1         1       -10
         6         1         1       -10
         5         0 # stress period 25
         2         1         1       -10
         3         1         1       -10
         4         1         1       -10
         5         1         1       -10
         6         1         1       -10
         5         0 # stress period 26
         2         1         1       -10
         3         1         1       -10
         4         1         1       -10
         5         1         1       -10
         6         1         1       -10
         5         0 # stress period 27
         2         1         1       -10
         3         1         1       -10
         4         1         1       -10
         5         1         1       -10
         6         1         1       -10
         5         0 # stress period 28
         2         1         1       -10
         3         1         1       -10
         4         1         1       -10
         5         1         1       -10
         6         1         1       -10
         5         0 # stress period 29
         2         1         1       -10
         3         1         1       -10
         4         1         1       -10
         5         1         1       -10
         6         1         1       -10
