# Name file for MODFLOW-2005, generated by Flopy.
#xul:0, yul:1, rotation:0, proj4_str:EPSG:4326 ,start_datetime:1-1-1970
LIST           2 onttrekking.list
DIS           11 onttrekking.dis 
BAS6          13 onttrekking.bas 
LPF           15 onttrekking.lpf 
WEL           20 onttrekking.wel 
OC            14 onttrekking.oc 
DATA(BINARY)  51 onttrekking.hds REPLACE
DATA(BINARY)  52 onttrekking.ddn REPLACE
DATA(BINARY)  53 onttrekking.cbc REPLACE
PCG           27 onttrekking.pcg 
