# LPF for MODFLOW, generated by Flopy.
        53    -1E+30         0  CONSTANTCV 
         0         0         0         0         0         0         0         0         0         0         0         0         0         0         0         0         0         0         0         0         0         0         0         0         0         0         0         0         0         0         0         0         0         0         0         0
         2         2         2         2         2         2         2         2         2         2         2         2         2         2         2         2         2         2         2         2         2         2         2         2         2         2         2         2         2         2         2         2         2         2         2         2
   1.000000E+00   1.000000E+00   1.000000E+00   1.000000E+00   1.000000E+00   1.000000E+00   1.000000E+00   1.000000E+00   1.000000E+00   1.000000E+00   1.000000E+00   1.000000E+00   1.000000E+00   1.000000E+00   1.000000E+00   1.000000E+00   1.000000E+00   1.000000E+00   1.000000E+00   1.000000E+00   1.000000E+00   1.000000E+00   1.000000E+00   1.000000E+00   1.000000E+00   1.000000E+00   1.000000E+00   1.000000E+00   1.000000E+00   1.000000E+00   1.000000E+00   1.000000E+00   1.000000E+00   1.000000E+00   1.000000E+00   1.000000E+00
         0         0         0         0         0         0         0         0         0         0         0         0         0         0         0         0         0         0         0         0         0         0         0         0         0         0         0         0         0         0         0         0         0         0         0         0
         0         0         0         0         0         0         0         0         0         0         0         0         0         0         0         0         0         0         0         0         0         0         0         0         0         0         0         0         0         0         0         0         0         0         0         0
INTERNAL               1  (36E15.6) -1 #hk layer 1                    
   2.199115E-03   7.261477E-03   1.385267E-02   2.243441E-02   3.360783E-02   4.815563E-02   6.709685E-02   9.175833E-02   1.238676E-01   1.656738E-01   2.201055E-01   2.909757E-01   3.832485E-01   5.033878E-01   6.598092E-01   8.634698E-01   1.128636E+00   1.473882E+00   1.923393E+00   2.508656E+00   3.270668E+00   4.262808E+00   5.554574E+00   7.236454E+00   9.426261E+00   1.227739E+01   1.598956E+01   2.082280E+01   2.711569E+01   3.530902E+01   4.597675E+01   5.986613E+01   7.795010E+01   1.014954E+02   1.321514E+02   1.720656E+02
INTERNAL               1  (36E15.6) -1 #vka layer 1                   
   2.199115E-03   7.261477E-03   1.385267E-02   2.243441E-02   3.360783E-02   4.815563E-02   6.709685E-02   9.175833E-02   1.238676E-01   1.656738E-01   2.201055E-01   2.909757E-01   3.832485E-01   5.033878E-01   6.598092E-01   8.634698E-01   1.128636E+00   1.473882E+00   1.923393E+00   2.508656E+00   3.270668E+00   4.262808E+00   5.554574E+00   7.236454E+00   9.426261E+00   1.227739E+01   1.598956E+01   2.082280E+01   2.711569E+01   3.530902E+01   4.597675E+01   5.986613E+01   7.795010E+01   1.014954E+02   1.321514E+02   1.720656E+02
INTERNAL               1  (36E15.6) -1 #ss layer 1                    
   6.283186E-02   2.074708E-01   3.957907E-01   6.409832E-01   9.602237E-01   1.375875E+00   1.917053E+00   2.621667E+00   3.539074E+00   4.733538E+00   6.288730E+00   8.313590E+00   1.094996E+01   1.438251E+01   1.885169E+01   2.467056E+01   3.224674E+01   4.211092E+01   5.495408E+01   7.167587E+01   9.344765E+01   1.217945E+02   1.587021E+02   2.067558E+02   2.693217E+02   3.507826E+02   4.568445E+02   5.949373E+02   7.747340E+02   1.008829E+03   1.313621E+03   1.710461E+03   2.227146E+03   2.899869E+03   3.775755E+03   4.916159E+03
INTERNAL               1  (36E15.6) -1 #hk layer 2                    
   3.141593E+00   1.037354E+01   1.978953E+01   3.204916E+01   4.801119E+01   6.879375E+01   9.585265E+01   1.310833E+02   1.769537E+02   2.366769E+02   3.144365E+02   4.156795E+02   5.474979E+02   7.191254E+02   9.425845E+02   1.233528E+03   1.612337E+03   2.105546E+03   2.747704E+03   3.583794E+03   4.672382E+03   6.089725E+03   7.935105E+03   1.033779E+04   1.346609E+04   1.753913E+04   2.284223E+04   2.974686E+04   3.873670E+04   5.044146E+04   6.568107E+04   8.552304E+04   1.113573E+05   1.449935E+05   1.887878E+05   2.458080E+05
INTERNAL               1  (36E15.6) -1 #vka layer 2                   
   1.256637E+00   4.149415E+00   7.915813E+00   1.281966E+01   1.920448E+01   2.751750E+01   3.834106E+01   5.243333E+01   7.078148E+01   9.467075E+01   1.257746E+02   1.662718E+02   2.189992E+02   2.876502E+02   3.770338E+02   4.934113E+02   6.449348E+02   8.422183E+02   1.099082E+03   1.433517E+03   1.868953E+03   2.435890E+03   3.174042E+03   4.135116E+03   5.386435E+03   7.015651E+03   9.136891E+03   1.189875E+04   1.549468E+04   2.017659E+04   2.627243E+04   3.420921E+04   4.454291E+04   5.799738E+04   7.551511E+04   9.832318E+04
INTERNAL               1  (36E15.6) -1 #ss layer 2                    
   3.141593E-05   1.037354E-04   1.978953E-04   3.204916E-04   4.801119E-04   6.879375E-04   9.585265E-04   1.310833E-03   1.769537E-03   2.366769E-03   3.144365E-03   4.156795E-03   5.474979E-03   7.191254E-03   9.425845E-03   1.233528E-02   1.612337E-02   2.105546E-02   2.747704E-02   3.583794E-02   4.672382E-02   6.089725E-02   7.935105E-02   1.033779E-01   1.346609E-01   1.753913E-01   2.284223E-01   2.974686E-01   3.873670E-01   5.044147E-01   6.568107E-01   8.552304E-01   1.113573E+00   1.449935E+00   1.887878E+00   2.458080E+00
INTERNAL               1  (36E15.6) -1 #hk layer 3                    
   3.141593E+00   1.037354E+01   1.978953E+01   3.204916E+01   4.801119E+01   6.879375E+01   9.585265E+01   1.310833E+02   1.769537E+02   2.366769E+02   3.144365E+02   4.156795E+02   5.474979E+02   7.191254E+02   9.425845E+02   1.233528E+03   1.612337E+03   2.105546E+03   2.747704E+03   3.583794E+03   4.672382E+03   6.089725E+03   7.935105E+03   1.033779E+04   1.346609E+04   1.753913E+04   2.284223E+04   2.974686E+04   3.873670E+04   5.044146E+04   6.568107E+04   8.552304E+04   1.113573E+05   1.449935E+05   1.887878E+05   2.458080E+05
INTERNAL               1  (36E15.6) -1 #vka layer 3                   
   1.256637E+00   4.149415E+00   7.915813E+00   1.281966E+01   1.920448E+01   2.751750E+01   3.834106E+01   5.243333E+01   7.078148E+01   9.467075E+01   1.257746E+02   1.662718E+02   2.189992E+02   2.876502E+02   3.770338E+02   4.934113E+02   6.449348E+02   8.422183E+02   1.099082E+03   1.433517E+03   1.868953E+03   2.435890E+03   3.174042E+03   4.135116E+03   5.386435E+03   7.015651E+03   9.136891E+03   1.189875E+04   1.549468E+04   2.017659E+04   2.627243E+04   3.420921E+04   4.454291E+04   5.799738E+04   7.551511E+04   9.832318E+04
INTERNAL               1  (36E15.6) -1 #ss layer 3                    
   3.141593E-05   1.037354E-04   1.978953E-04   3.204916E-04   4.801119E-04   6.879375E-04   9.585265E-04   1.310833E-03   1.769537E-03   2.366769E-03   3.144365E-03   4.156795E-03   5.474979E-03   7.191254E-03   9.425845E-03   1.233528E-02   1.612337E-02   2.105546E-02   2.747704E-02   3.583794E-02   4.672382E-02   6.089725E-02   7.935105E-02   1.033779E-01   1.346609E-01   1.753913E-01   2.284223E-01   2.974686E-01   3.873670E-01   5.044147E-01   6.568107E-01   8.552304E-01   1.113573E+00   1.449935E+00   1.887878E+00   2.458080E+00
INTERNAL               1  (36E15.6) -1 #hk layer 4                    
   3.141593E+00   1.037354E+01   1.978953E+01   3.204916E+01   4.801119E+01   6.879375E+01   9.585265E+01   1.310833E+02   1.769537E+02   2.366769E+02   3.144365E+02   4.156795E+02   5.474979E+02   7.191254E+02   9.425845E+02   1.233528E+03   1.612337E+03   2.105546E+03   2.747704E+03   3.583794E+03   4.672382E+03   6.089725E+03   7.935105E+03   1.033779E+04   1.346609E+04   1.753913E+04   2.284223E+04   2.974686E+04   3.873670E+04   5.044146E+04   6.568107E+04   8.552304E+04   1.113573E+05   1.449935E+05   1.887878E+05   2.458080E+05
INTERNAL               1  (36E15.6) -1 #vka layer 4                   
   1.256637E+00   4.149415E+00   7.915813E+00   1.281966E+01   1.920448E+01   2.751750E+01   3.834106E+01   5.243333E+01   7.078148E+01   9.467075E+01   1.257746E+02   1.662718E+02   2.189992E+02   2.876502E+02   3.770338E+02   4.934113E+02   6.449348E+02   8.422183E+02   1.099082E+03   1.433517E+03   1.868953E+03   2.435890E+03   3.174042E+03   4.135116E+03   5.386435E+03   7.015651E+03   9.136891E+03   1.189875E+04   1.549468E+04   2.017659E+04   2.627243E+04   3.420921E+04   4.454291E+04   5.799738E+04   7.551511E+04   9.832318E+04
INTERNAL               1  (36E15.6) -1 #ss layer 4                    
   3.141593E-05   1.037354E-04   1.978953E-04   3.204916E-04   4.801119E-04   6.879375E-04   9.585265E-04   1.310833E-03   1.769537E-03   2.366769E-03   3.144365E-03   4.156795E-03   5.474979E-03   7.191254E-03   9.425845E-03   1.233528E-02   1.612337E-02   2.105546E-02   2.747704E-02   3.583794E-02   4.672382E-02   6.089725E-02   7.935105E-02   1.033779E-01   1.346609E-01   1.753913E-01   2.284223E-01   2.974686E-01   3.873670E-01   5.044147E-01   6.568107E-01   8.552304E-01   1.113573E+00   1.449935E+00   1.887878E+00   2.458080E+00
INTERNAL               1  (36E15.6) -1 #hk layer 5                    
   3.141593E+00   1.037354E+01   1.978953E+01   3.204916E+01   4.801119E+01   6.879375E+01   9.585265E+01   1.310833E+02   1.769537E+02   2.366769E+02   3.144365E+02   4.156795E+02   5.474979E+02   7.191254E+02   9.425845E+02   1.233528E+03   1.612337E+03   2.105546E+03   2.747704E+03   3.583794E+03   4.672382E+03   6.089725E+03   7.935105E+03   1.033779E+04   1.346609E+04   1.753913E+04   2.284223E+04   2.974686E+04   3.873670E+04   5.044146E+04   6.568107E+04   8.552304E+04   1.113573E+05   1.449935E+05   1.887878E+05   2.458080E+05
INTERNAL               1  (36E15.6) -1 #vka layer 5                   
   1.256637E+00   4.149415E+00   7.915813E+00   1.281966E+01   1.920448E+01   2.751750E+01   3.834106E+01   5.243333E+01   7.078148E+01   9.467075E+01   1.257746E+02   1.662718E+02   2.189992E+02   2.876502E+02   3.770338E+02   4.934113E+02   6.449348E+02   8.422183E+02   1.099082E+03   1.433517E+03   1.868953E+03   2.435890E+03   3.174042E+03   4.135116E+03   5.386435E+03   7.015651E+03   9.136891E+03   1.189875E+04   1.549468E+04   2.017659E+04   2.627243E+04   3.420921E+04   4.454291E+04   5.799738E+04   7.551511E+04   9.832318E+04
INTERNAL               1  (36E15.6) -1 #ss layer 5                    
   3.141593E-05   1.037354E-04   1.978953E-04   3.204916E-04   4.801119E-04   6.879375E-04   9.585265E-04   1.310833E-03   1.769537E-03   2.366769E-03   3.144365E-03   4.156795E-03   5.474979E-03   7.191254E-03   9.425845E-03   1.233528E-02   1.612337E-02   2.105546E-02   2.747704E-02   3.583794E-02   4.672382E-02   6.089725E-02   7.935105E-02   1.033779E-01   1.346609E-01   1.753913E-01   2.284223E-01   2.974686E-01   3.873670E-01   5.044147E-01   6.568107E-01   8.552304E-01   1.113573E+00   1.449935E+00   1.887878E+00   2.458080E+00
INTERNAL               1  (36E15.6) -1 #hk layer 6                    
   3.141593E+00   1.037354E+01   1.978953E+01   3.204916E+01   4.801119E+01   6.879375E+01   9.585265E+01   1.310833E+02   1.769537E+02   2.366769E+02   3.144365E+02   4.156795E+02   5.474979E+02   7.191254E+02   9.425845E+02   1.233528E+03   1.612337E+03   2.105546E+03   2.747704E+03   3.583794E+03   4.672382E+03   6.089725E+03   7.935105E+03   1.033779E+04   1.346609E+04   1.753913E+04   2.284223E+04   2.974686E+04   3.873670E+04   5.044146E+04   6.568107E+04   8.552304E+04   1.113573E+05   1.449935E+05   1.887878E+05   2.458080E+05
INTERNAL               1  (36E15.6) -1 #vka layer 6                   
   1.256637E+00   4.149415E+00   7.915813E+00   1.281966E+01   1.920448E+01   2.751750E+01   3.834106E+01   5.243333E+01   7.078148E+01   9.467075E+01   1.257746E+02   1.662718E+02   2.189992E+02   2.876502E+02   3.770338E+02   4.934113E+02   6.449348E+02   8.422183E+02   1.099082E+03   1.433517E+03   1.868953E+03   2.435890E+03   3.174042E+03   4.135116E+03   5.386435E+03   7.015651E+03   9.136891E+03   1.189875E+04   1.549468E+04   2.017659E+04   2.627243E+04   3.420921E+04   4.454291E+04   5.799738E+04   7.551511E+04   9.832318E+04
INTERNAL               1  (36E15.6) -1 #ss layer 6                    
   3.141593E-05   1.037354E-04   1.978953E-04   3.204916E-04   4.801119E-04   6.879375E-04   9.585265E-04   1.310833E-03   1.769537E-03   2.366769E-03   3.144365E-03   4.156795E-03   5.474979E-03   7.191254E-03   9.425845E-03   1.233528E-02   1.612337E-02   2.105546E-02   2.747704E-02   3.583794E-02   4.672382E-02   6.089725E-02   7.935105E-02   1.033779E-01   1.346609E-01   1.753913E-01   2.284223E-01   2.974686E-01   3.873670E-01   5.044147E-01   6.568107E-01   8.552304E-01   1.113573E+00   1.449935E+00   1.887878E+00   2.458080E+00
INTERNAL               1  (36E15.6) -1 #hk layer 7                    
   3.141593E+00   1.037354E+01   1.978953E+01   3.204916E+01   4.801119E+01   6.879375E+01   9.585265E+01   1.310833E+02   1.769537E+02   2.366769E+02   3.144365E+02   4.156795E+02   5.474979E+02   7.191254E+02   9.425845E+02   1.233528E+03   1.612337E+03   2.105546E+03   2.747704E+03   3.583794E+03   4.672382E+03   6.089725E+03   7.935105E+03   1.033779E+04   1.346609E+04   1.753913E+04   2.284223E+04   2.974686E+04   3.873670E+04   5.044146E+04   6.568107E+04   8.552304E+04   1.113573E+05   1.449935E+05   1.887878E+05   2.458080E+05
INTERNAL               1  (36E15.6) -1 #vka layer 7                   
   1.256637E+00   4.149415E+00   7.915813E+00   1.281966E+01   1.920448E+01   2.751750E+01   3.834106E+01   5.243333E+01   7.078148E+01   9.467075E+01   1.257746E+02   1.662718E+02   2.189992E+02   2.876502E+02   3.770338E+02   4.934113E+02   6.449348E+02   8.422183E+02   1.099082E+03   1.433517E+03   1.868953E+03   2.435890E+03   3.174042E+03   4.135116E+03   5.386435E+03   7.015651E+03   9.136891E+03   1.189875E+04   1.549468E+04   2.017659E+04   2.627243E+04   3.420921E+04   4.454291E+04   5.799738E+04   7.551511E+04   9.832318E+04
INTERNAL               1  (36E15.6) -1 #ss layer 7                    
   3.141593E-05   1.037354E-04   1.978953E-04   3.204916E-04   4.801119E-04   6.879375E-04   9.585265E-04   1.310833E-03   1.769537E-03   2.366769E-03   3.144365E-03   4.156795E-03   5.474979E-03   7.191254E-03   9.425845E-03   1.233528E-02   1.612337E-02   2.105546E-02   2.747704E-02   3.583794E-02   4.672382E-02   6.089725E-02   7.935105E-02   1.033779E-01   1.346609E-01   1.753913E-01   2.284223E-01   2.974686E-01   3.873670E-01   5.044147E-01   6.568107E-01   8.552304E-01   1.113573E+00   1.449935E+00   1.887878E+00   2.458080E+00
INTERNAL               1  (36E15.6) -1 #hk layer 8                    
   3.141593E+00   1.037354E+01   1.978953E+01   3.204916E+01   4.801119E+01   6.879375E+01   9.585265E+01   1.310833E+02   1.769537E+02   2.366769E+02   3.144365E+02   4.156795E+02   5.474979E+02   7.191254E+02   9.425845E+02   1.233528E+03   1.612337E+03   2.105546E+03   2.747704E+03   3.583794E+03   4.672382E+03   6.089725E+03   7.935105E+03   1.033779E+04   1.346609E+04   1.753913E+04   2.284223E+04   2.974686E+04   3.873670E+04   5.044146E+04   6.568107E+04   8.552304E+04   1.113573E+05   1.449935E+05   1.887878E+05   2.458080E+05
INTERNAL               1  (36E15.6) -1 #vka layer 8                   
   1.256637E+00   4.149415E+00   7.915813E+00   1.281966E+01   1.920448E+01   2.751750E+01   3.834106E+01   5.243333E+01   7.078148E+01   9.467075E+01   1.257746E+02   1.662718E+02   2.189992E+02   2.876502E+02   3.770338E+02   4.934113E+02   6.449348E+02   8.422183E+02   1.099082E+03   1.433517E+03   1.868953E+03   2.435890E+03   3.174042E+03   4.135116E+03   5.386435E+03   7.015651E+03   9.136891E+03   1.189875E+04   1.549468E+04   2.017659E+04   2.627243E+04   3.420921E+04   4.454291E+04   5.799738E+04   7.551511E+04   9.832318E+04
INTERNAL               1  (36E15.6) -1 #ss layer 8                    
   3.141593E-05   1.037354E-04   1.978953E-04   3.204916E-04   4.801119E-04   6.879375E-04   9.585265E-04   1.310833E-03   1.769537E-03   2.366769E-03   3.144365E-03   4.156795E-03   5.474979E-03   7.191254E-03   9.425845E-03   1.233528E-02   1.612337E-02   2.105546E-02   2.747704E-02   3.583794E-02   4.672382E-02   6.089725E-02   7.935105E-02   1.033779E-01   1.346609E-01   1.753913E-01   2.284223E-01   2.974686E-01   3.873670E-01   5.044147E-01   6.568107E-01   8.552304E-01   1.113573E+00   1.449935E+00   1.887878E+00   2.458080E+00
INTERNAL               1  (36E15.6) -1 #hk layer 9                    
   3.141593E+00   1.037354E+01   1.978953E+01   3.204916E+01   4.801119E+01   6.879375E+01   9.585265E+01   1.310833E+02   1.769537E+02   2.366769E+02   3.144365E+02   4.156795E+02   5.474979E+02   7.191254E+02   9.425845E+02   1.233528E+03   1.612337E+03   2.105546E+03   2.747704E+03   3.583794E+03   4.672382E+03   6.089725E+03   7.935105E+03   1.033779E+04   1.346609E+04   1.753913E+04   2.284223E+04   2.974686E+04   3.873670E+04   5.044146E+04   6.568107E+04   8.552304E+04   1.113573E+05   1.449935E+05   1.887878E+05   2.458080E+05
INTERNAL               1  (36E15.6) -1 #vka layer 9                   
   1.256637E+00   4.149415E+00   7.915813E+00   1.281966E+01   1.920448E+01   2.751750E+01   3.834106E+01   5.243333E+01   7.078148E+01   9.467075E+01   1.257746E+02   1.662718E+02   2.189992E+02   2.876502E+02   3.770338E+02   4.934113E+02   6.449348E+02   8.422183E+02   1.099082E+03   1.433517E+03   1.868953E+03   2.435890E+03   3.174042E+03   4.135116E+03   5.386435E+03   7.015651E+03   9.136891E+03   1.189875E+04   1.549468E+04   2.017659E+04   2.627243E+04   3.420921E+04   4.454291E+04   5.799738E+04   7.551511E+04   9.832318E+04
INTERNAL               1  (36E15.6) -1 #ss layer 9                    
   3.141593E-05   1.037354E-04   1.978953E-04   3.204916E-04   4.801119E-04   6.879375E-04   9.585265E-04   1.310833E-03   1.769537E-03   2.366769E-03   3.144365E-03   4.156795E-03   5.474979E-03   7.191254E-03   9.425845E-03   1.233528E-02   1.612337E-02   2.105546E-02   2.747704E-02   3.583794E-02   4.672382E-02   6.089725E-02   7.935105E-02   1.033779E-01   1.346609E-01   1.753913E-01   2.284223E-01   2.974686E-01   3.873670E-01   5.044147E-01   6.568107E-01   8.552304E-01   1.113573E+00   1.449935E+00   1.887878E+00   2.458080E+00
INTERNAL               1  (36E15.6) -1 #hk layer 10                   
   3.141593E+00   1.037354E+01   1.978953E+01   3.204916E+01   4.801119E+01   6.879375E+01   9.585265E+01   1.310833E+02   1.769537E+02   2.366769E+02   3.144365E+02   4.156795E+02   5.474979E+02   7.191254E+02   9.425845E+02   1.233528E+03   1.612337E+03   2.105546E+03   2.747704E+03   3.583794E+03   4.672382E+03   6.089725E+03   7.935105E+03   1.033779E+04   1.346609E+04   1.753913E+04   2.284223E+04   2.974686E+04   3.873670E+04   5.044146E+04   6.568107E+04   8.552304E+04   1.113573E+05   1.449935E+05   1.887878E+05   2.458080E+05
INTERNAL               1  (36E15.6) -1 #vka layer 10                  
   1.256637E+00   4.149415E+00   7.915813E+00   1.281966E+01   1.920448E+01   2.751750E+01   3.834106E+01   5.243333E+01   7.078148E+01   9.467075E+01   1.257746E+02   1.662718E+02   2.189992E+02   2.876502E+02   3.770338E+02   4.934113E+02   6.449348E+02   8.422183E+02   1.099082E+03   1.433517E+03   1.868953E+03   2.435890E+03   3.174042E+03   4.135116E+03   5.386435E+03   7.015651E+03   9.136891E+03   1.189875E+04   1.549468E+04   2.017659E+04   2.627243E+04   3.420921E+04   4.454291E+04   5.799738E+04   7.551511E+04   9.832318E+04
INTERNAL               1  (36E15.6) -1 #ss layer 10                   
   3.141593E-05   1.037354E-04   1.978953E-04   3.204916E-04   4.801119E-04   6.879375E-04   9.585265E-04   1.310833E-03   1.769537E-03   2.366769E-03   3.144365E-03   4.156795E-03   5.474979E-03   7.191254E-03   9.425845E-03   1.233528E-02   1.612337E-02   2.105546E-02   2.747704E-02   3.583794E-02   4.672382E-02   6.089725E-02   7.935105E-02   1.033779E-01   1.346609E-01   1.753913E-01   2.284223E-01   2.974686E-01   3.873670E-01   5.044147E-01   6.568107E-01   8.552304E-01   1.113573E+00   1.449935E+00   1.887878E+00   2.458080E+00
INTERNAL               1  (36E15.6) -1 #hk layer 11                   
   3.141593E+00   1.037354E+01   1.978953E+01   3.204916E+01   4.801119E+01   6.879375E+01   9.585265E+01   1.310833E+02   1.769537E+02   2.366769E+02   3.144365E+02   4.156795E+02   5.474979E+02   7.191254E+02   9.425845E+02   1.233528E+03   1.612337E+03   2.105546E+03   2.747704E+03   3.583794E+03   4.672382E+03   6.089725E+03   7.935105E+03   1.033779E+04   1.346609E+04   1.753913E+04   2.284223E+04   2.974686E+04   3.873670E+04   5.044146E+04   6.568107E+04   8.552304E+04   1.113573E+05   1.449935E+05   1.887878E+05   2.458080E+05
INTERNAL               1  (36E15.6) -1 #vka layer 11                  
   1.256637E+00   4.149415E+00   7.915813E+00   1.281966E+01   1.920448E+01   2.751750E+01   3.834106E+01   5.243333E+01   7.078148E+01   9.467075E+01   1.257746E+02   1.662718E+02   2.189992E+02   2.876502E+02   3.770338E+02   4.934113E+02   6.449348E+02   8.422183E+02   1.099082E+03   1.433517E+03   1.868953E+03   2.435890E+03   3.174042E+03   4.135116E+03   5.386435E+03   7.015651E+03   9.136891E+03   1.189875E+04   1.549468E+04   2.017659E+04   2.627243E+04   3.420921E+04   4.454291E+04   5.799738E+04   7.551511E+04   9.832318E+04
INTERNAL               1  (36E15.6) -1 #ss layer 11                   
   3.141593E-05   1.037354E-04   1.978953E-04   3.204916E-04   4.801119E-04   6.879375E-04   9.585265E-04   1.310833E-03   1.769537E-03   2.366769E-03   3.144365E-03   4.156795E-03   5.474979E-03   7.191254E-03   9.425845E-03   1.233528E-02   1.612337E-02   2.105546E-02   2.747704E-02   3.583794E-02   4.672382E-02   6.089725E-02   7.935105E-02   1.033779E-01   1.346609E-01   1.753913E-01   2.284223E-01   2.974686E-01   3.873670E-01   5.044147E-01   6.568107E-01   8.552304E-01   1.113573E+00   1.449935E+00   1.887878E+00   2.458080E+00
INTERNAL               1  (36E15.6) -1 #hk layer 12                   
   3.141593E+00   1.037354E+01   1.978953E+01   3.204916E+01   4.801119E+01   6.879375E+01   9.585265E+01   1.310833E+02   1.769537E+02   2.366769E+02   3.144365E+02   4.156795E+02   5.474979E+02   7.191254E+02   9.425845E+02   1.233528E+03   1.612337E+03   2.105546E+03   2.747704E+03   3.583794E+03   4.672382E+03   6.089725E+03   7.935105E+03   1.033779E+04   1.346609E+04   1.753913E+04   2.284223E+04   2.974686E+04   3.873670E+04   5.044146E+04   6.568107E+04   8.552304E+04   1.113573E+05   1.449935E+05   1.887878E+05   2.458080E+05
INTERNAL               1  (36E15.6) -1 #vka layer 12                  
   1.256637E+00   4.149415E+00   7.915813E+00   1.281966E+01   1.920448E+01   2.751750E+01   3.834106E+01   5.243333E+01   7.078148E+01   9.467075E+01   1.257746E+02   1.662718E+02   2.189992E+02   2.876502E+02   3.770338E+02   4.934113E+02   6.449348E+02   8.422183E+02   1.099082E+03   1.433517E+03   1.868953E+03   2.435890E+03   3.174042E+03   4.135116E+03   5.386435E+03   7.015651E+03   9.136891E+03   1.189875E+04   1.549468E+04   2.017659E+04   2.627243E+04   3.420921E+04   4.454291E+04   5.799738E+04   7.551511E+04   9.832318E+04
INTERNAL               1  (36E15.6) -1 #ss layer 12                   
   3.141593E-05   1.037354E-04   1.978953E-04   3.204916E-04   4.801119E-04   6.879375E-04   9.585265E-04   1.310833E-03   1.769537E-03   2.366769E-03   3.144365E-03   4.156795E-03   5.474979E-03   7.191254E-03   9.425845E-03   1.233528E-02   1.612337E-02   2.105546E-02   2.747704E-02   3.583794E-02   4.672382E-02   6.089725E-02   7.935105E-02   1.033779E-01   1.346609E-01   1.753913E-01   2.284223E-01   2.974686E-01   3.873670E-01   5.044147E-01   6.568107E-01   8.552304E-01   1.113573E+00   1.449935E+00   1.887878E+00   2.458080E+00
INTERNAL               1  (36E15.6) -1 #hk layer 13                   
   3.141593E+00   1.037354E+01   1.978953E+01   3.204916E+01   4.801119E+01   6.879375E+01   9.585265E+01   1.310833E+02   1.769537E+02   2.366769E+02   3.144365E+02   4.156795E+02   5.474979E+02   7.191254E+02   9.425845E+02   1.233528E+03   1.612337E+03   2.105546E+03   2.747704E+03   3.583794E+03   4.672382E+03   6.089725E+03   7.935105E+03   1.033779E+04   1.346609E+04   1.753913E+04   2.284223E+04   2.974686E+04   3.873670E+04   5.044146E+04   6.568107E+04   8.552304E+04   1.113573E+05   1.449935E+05   1.887878E+05   2.458080E+05
INTERNAL               1  (36E15.6) -1 #vka layer 13                  
   1.256637E+00   4.149415E+00   7.915813E+00   1.281966E+01   1.920448E+01   2.751750E+01   3.834106E+01   5.243333E+01   7.078148E+01   9.467075E+01   1.257746E+02   1.662718E+02   2.189992E+02   2.876502E+02   3.770338E+02   4.934113E+02   6.449348E+02   8.422183E+02   1.099082E+03   1.433517E+03   1.868953E+03   2.435890E+03   3.174042E+03   4.135116E+03   5.386435E+03   7.015651E+03   9.136891E+03   1.189875E+04   1.549468E+04   2.017659E+04   2.627243E+04   3.420921E+04   4.454291E+04   5.799738E+04   7.551511E+04   9.832318E+04
INTERNAL               1  (36E15.6) -1 #ss layer 13                   
   3.141593E-05   1.037354E-04   1.978953E-04   3.204916E-04   4.801119E-04   6.879375E-04   9.585265E-04   1.310833E-03   1.769537E-03   2.366769E-03   3.144365E-03   4.156795E-03   5.474979E-03   7.191254E-03   9.425845E-03   1.233528E-02   1.612337E-02   2.105546E-02   2.747704E-02   3.583794E-02   4.672382E-02   6.089725E-02   7.935105E-02   1.033779E-01   1.346609E-01   1.753913E-01   2.284223E-01   2.974686E-01   3.873670E-01   5.044147E-01   6.568107E-01   8.552304E-01   1.113573E+00   1.449935E+00   1.887878E+00   2.458080E+00
INTERNAL               1  (36E15.6) -1 #hk layer 14                   
   3.141593E+00   1.037354E+01   1.978953E+01   3.204916E+01   4.801119E+01   6.879375E+01   9.585265E+01   1.310833E+02   1.769537E+02   2.366769E+02   3.144365E+02   4.156795E+02   5.474979E+02   7.191254E+02   9.425845E+02   1.233528E+03   1.612337E+03   2.105546E+03   2.747704E+03   3.583794E+03   4.672382E+03   6.089725E+03   7.935105E+03   1.033779E+04   1.346609E+04   1.753913E+04   2.284223E+04   2.974686E+04   3.873670E+04   5.044146E+04   6.568107E+04   8.552304E+04   1.113573E+05   1.449935E+05   1.887878E+05   2.458080E+05
INTERNAL               1  (36E15.6) -1 #vka layer 14                  
   1.256637E+00   4.149415E+00   7.915813E+00   1.281966E+01   1.920448E+01   2.751750E+01   3.834106E+01   5.243333E+01   7.078148E+01   9.467075E+01   1.257746E+02   1.662718E+02   2.189992E+02   2.876502E+02   3.770338E+02   4.934113E+02   6.449348E+02   8.422183E+02   1.099082E+03   1.433517E+03   1.868953E+03   2.435890E+03   3.174042E+03   4.135116E+03   5.386435E+03   7.015651E+03   9.136891E+03   1.189875E+04   1.549468E+04   2.017659E+04   2.627243E+04   3.420921E+04   4.454291E+04   5.799738E+04   7.551511E+04   9.832318E+04
INTERNAL               1  (36E15.6) -1 #ss layer 14                   
   3.141593E-05   1.037354E-04   1.978953E-04   3.204916E-04   4.801119E-04   6.879375E-04   9.585265E-04   1.310833E-03   1.769537E-03   2.366769E-03   3.144365E-03   4.156795E-03   5.474979E-03   7.191254E-03   9.425845E-03   1.233528E-02   1.612337E-02   2.105546E-02   2.747704E-02   3.583794E-02   4.672382E-02   6.089725E-02   7.935105E-02   1.033779E-01   1.346609E-01   1.753913E-01   2.284223E-01   2.974686E-01   3.873670E-01   5.044147E-01   6.568107E-01   8.552304E-01   1.113573E+00   1.449935E+00   1.887878E+00   2.458080E+00
INTERNAL               1  (36E15.6) -1 #hk layer 15                   
   3.141593E+00   1.037354E+01   1.978953E+01   3.204916E+01   4.801119E+01   6.879375E+01   9.585265E+01   1.310833E+02   1.769537E+02   2.366769E+02   3.144365E+02   4.156795E+02   5.474979E+02   7.191254E+02   9.425845E+02   1.233528E+03   1.612337E+03   2.105546E+03   2.747704E+03   3.583794E+03   4.672382E+03   6.089725E+03   7.935105E+03   1.033779E+04   1.346609E+04   1.753913E+04   2.284223E+04   2.974686E+04   3.873670E+04   5.044146E+04   6.568107E+04   8.552304E+04   1.113573E+05   1.449935E+05   1.887878E+05   2.458080E+05
INTERNAL               1  (36E15.6) -1 #vka layer 15                  
   1.256637E+00   4.149415E+00   7.915813E+00   1.281966E+01   1.920448E+01   2.751750E+01   3.834106E+01   5.243333E+01   7.078148E+01   9.467075E+01   1.257746E+02   1.662718E+02   2.189992E+02   2.876502E+02   3.770338E+02   4.934113E+02   6.449348E+02   8.422183E+02   1.099082E+03   1.433517E+03   1.868953E+03   2.435890E+03   3.174042E+03   4.135116E+03   5.386435E+03   7.015651E+03   9.136891E+03   1.189875E+04   1.549468E+04   2.017659E+04   2.627243E+04   3.420921E+04   4.454291E+04   5.799738E+04   7.551511E+04   9.832318E+04
INTERNAL               1  (36E15.6) -1 #ss layer 15                   
   3.141593E-05   1.037354E-04   1.978953E-04   3.204916E-04   4.801119E-04   6.879375E-04   9.585265E-04   1.310833E-03   1.769537E-03   2.366769E-03   3.144365E-03   4.156795E-03   5.474979E-03   7.191254E-03   9.425845E-03   1.233528E-02   1.612337E-02   2.105546E-02   2.747704E-02   3.583794E-02   4.672382E-02   6.089725E-02   7.935105E-02   1.033779E-01   1.346609E-01   1.753913E-01   2.284223E-01   2.974686E-01   3.873670E-01   5.044147E-01   6.568107E-01   8.552304E-01   1.113573E+00   1.449935E+00   1.887878E+00   2.458080E+00
INTERNAL               1  (36E15.6) -1 #hk layer 16                   